data_RWY
_audit_creation_date              2023-04-11
_audit_creation_method            'Materials Studio'
_symmetry_space_group_name_H-M    'P1'
_symmetry_Int_Tables_number       1
_symmetry_cell_setting            triclinic
loop_
_symmetry_equiv_pos_as_xyz
  x,y,z
_cell_length_a                    17.7620
_cell_length_b                    17.7620
_cell_length_c                    17.7620
_cell_angle_alpha                 90.0000
_cell_angle_beta                  90.0000
_cell_angle_gamma                 90.0000
loop_
_atom_site_label
_atom_site_type_symbol
_atom_site_fract_x
_atom_site_fract_y
_atom_site_fract_z
_atom_site_U_iso_or_equiv
_atom_site_adp_type
_atom_site_occupancy
O1     O     0.04540   0.25000   0.40700   0.00000  Uiso   1.00
Si2    Si    0.07400   0.19620   0.47460   0.00000  Uiso   1.00
O3     O     0.54540   0.75000   0.90700   0.00000  Uiso   1.00
Si4    Si    0.57400   0.69620   0.97460   0.00000  Uiso   1.00
O5     O     0.95460   0.75000   0.40700   0.00000  Uiso   1.00
Si6    Si    0.92600   0.80380   0.47460   0.00000  Uiso   1.00
O7     O     0.45460   0.25000   0.90700   0.00000  Uiso   1.00
Si8    Si    0.42600   0.30380   0.97460   0.00000  Uiso   1.00
O9     O     0.95460   0.25000   0.59300   0.00000  Uiso   1.00
Si10   Si    0.92600   0.19620   0.52540   0.00000  Uiso   1.00
O11    O     0.45460   0.75000   0.09300   0.00000  Uiso   1.00
Si12   Si    0.42600   0.69620   0.02540   0.00000  Uiso   1.00
O13    O     0.04540   0.75000   0.59300   0.00000  Uiso   1.00
Si14   Si    0.07400   0.80380   0.52540   0.00000  Uiso   1.00
O15    O     0.54540   0.25000   0.09300   0.00000  Uiso   1.00
Si16   Si    0.57400   0.30380   0.02540   0.00000  Uiso   1.00
O17    O     0.40700   0.04540   0.25000   0.00000  Uiso   1.00
Si18   Si    0.47460   0.07400   0.19620   0.00000  Uiso   1.00
O19    O     0.90700   0.54540   0.75000   0.00000  Uiso   1.00
Si20   Si    0.97460   0.57400   0.69620   0.00000  Uiso   1.00
O21    O     0.40700   0.95460   0.75000   0.00000  Uiso   1.00
Si22   Si    0.47460   0.92600   0.80380   0.00000  Uiso   1.00
O23    O     0.90700   0.45460   0.25000   0.00000  Uiso   1.00
Si24   Si    0.97460   0.42600   0.30380   0.00000  Uiso   1.00
O25    O     0.59300   0.95460   0.25000   0.00000  Uiso   1.00
Si26   Si    0.52540   0.92600   0.19620   0.00000  Uiso   1.00
O27    O     0.09300   0.45460   0.75000   0.00000  Uiso   1.00
Si28   Si    0.02540   0.42600   0.69620   0.00000  Uiso   1.00
O29    O     0.59300   0.04540   0.75000   0.00000  Uiso   1.00
Si30   Si    0.52540   0.07400   0.80380   0.00000  Uiso   1.00
O31    O     0.09300   0.54540   0.25000   0.00000  Uiso   1.00
Si32   Si    0.02540   0.57400   0.30380   0.00000  Uiso   1.00
O33    O     0.25000   0.40700   0.04540   0.00000  Uiso   1.00
Si34   Si    0.19620   0.47460   0.07400   0.00000  Uiso   1.00
O35    O     0.75000   0.90700   0.54540   0.00000  Uiso   1.00
Si36   Si    0.69620   0.97460   0.57400   0.00000  Uiso   1.00
O37    O     0.75000   0.40700   0.95460   0.00000  Uiso   1.00
Si38   Si    0.80380   0.47460   0.92600   0.00000  Uiso   1.00
O39    O     0.25000   0.90700   0.45460   0.00000  Uiso   1.00
Si40   Si    0.30380   0.97460   0.42600   0.00000  Uiso   1.00
O41    O     0.25000   0.59300   0.95460   0.00000  Uiso   1.00
Si42   Si    0.19620   0.52540   0.92600   0.00000  Uiso   1.00
O43    O     0.75000   0.09300   0.45460   0.00000  Uiso   1.00
Si44   Si    0.69620   0.02540   0.42600   0.00000  Uiso   1.00
O45    O     0.75000   0.59300   0.04540   0.00000  Uiso   1.00
Si46   Si    0.80380   0.52540   0.07400   0.00000  Uiso   1.00
O47    O     0.25000   0.09300   0.54540   0.00000  Uiso   1.00
Si48   Si    0.30380   0.02540   0.57400   0.00000  Uiso   1.00
O49    O     0.25000   0.04540   0.40700   0.00000  Uiso   1.00
Si50   Si    0.19620   0.07400   0.47460   0.00000  Uiso   1.00
O51    O     0.75000   0.54540   0.90700   0.00000  Uiso   1.00
Si52   Si    0.69620   0.57400   0.97460   0.00000  Uiso   1.00
O53    O     0.75000   0.95460   0.40700   0.00000  Uiso   1.00
Si54   Si    0.80380   0.92600   0.47460   0.00000  Uiso   1.00
O55    O     0.25000   0.45460   0.90700   0.00000  Uiso   1.00
Si56   Si    0.30380   0.42600   0.97460   0.00000  Uiso   1.00
O57    O     0.25000   0.95460   0.59300   0.00000  Uiso   1.00
Si58   Si    0.19620   0.92600   0.52540   0.00000  Uiso   1.00
O59    O     0.75000   0.45460   0.09300   0.00000  Uiso   1.00
Si60   Si    0.69620   0.42600   0.02540   0.00000  Uiso   1.00
O61    O     0.75000   0.04540   0.59300   0.00000  Uiso   1.00
Si62   Si    0.80380   0.07400   0.52540   0.00000  Uiso   1.00
O63    O     0.25000   0.54540   0.09300   0.00000  Uiso   1.00
Si64   Si    0.30380   0.57400   0.02540   0.00000  Uiso   1.00
O65    O     0.04540   0.40700   0.25000   0.00000  Uiso   1.00
Si66   Si    0.07400   0.47460   0.19620   0.00000  Uiso   1.00
O67    O     0.54540   0.90700   0.75000   0.00000  Uiso   1.00
Si68   Si    0.57400   0.97460   0.69620   0.00000  Uiso   1.00
O69    O     0.95460   0.40700   0.75000   0.00000  Uiso   1.00
Si70   Si    0.92600   0.47460   0.80380   0.00000  Uiso   1.00
O71    O     0.45460   0.90700   0.25000   0.00000  Uiso   1.00
Si72   Si    0.42600   0.97460   0.30380   0.00000  Uiso   1.00
O73    O     0.95460   0.59300   0.25000   0.00000  Uiso   1.00
Si74   Si    0.92600   0.52540   0.19620   0.00000  Uiso   1.00
O75    O     0.45460   0.09300   0.75000   0.00000  Uiso   1.00
Si76   Si    0.42600   0.02540   0.69620   0.00000  Uiso   1.00
O77    O     0.04540   0.59300   0.75000   0.00000  Uiso   1.00
Si78   Si    0.07400   0.52540   0.80380   0.00000  Uiso   1.00
O79    O     0.54540   0.09300   0.25000   0.00000  Uiso   1.00
Si80   Si    0.57400   0.02540   0.30380   0.00000  Uiso   1.00
O81    O     0.40700   0.25000   0.04540   0.00000  Uiso   1.00
Si82   Si    0.47460   0.19620   0.07400   0.00000  Uiso   1.00
O83    O     0.90700   0.75000   0.54540   0.00000  Uiso   1.00
Si84   Si    0.97460   0.69620   0.57400   0.00000  Uiso   1.00
O85    O     0.40700   0.75000   0.95460   0.00000  Uiso   1.00
Si86   Si    0.47460   0.80380   0.92600   0.00000  Uiso   1.00
O87    O     0.90700   0.25000   0.45460   0.00000  Uiso   1.00
Si88   Si    0.97460   0.30380   0.42600   0.00000  Uiso   1.00
O89    O     0.59300   0.25000   0.95460   0.00000  Uiso   1.00
Si90   Si    0.52540   0.19620   0.92600   0.00000  Uiso   1.00
O91    O     0.09300   0.75000   0.45460   0.00000  Uiso   1.00
Si92   Si    0.02540   0.69620   0.42600   0.00000  Uiso   1.00
O93    O     0.59300   0.75000   0.04540   0.00000  Uiso   1.00
Si94   Si    0.52540   0.80380   0.07400   0.00000  Uiso   1.00
O95    O     0.09300   0.25000   0.54540   0.00000  Uiso   1.00
Si96   Si    0.02540   0.30380   0.57400   0.00000  Uiso   1.00
O97    O     0.14290   0.14290   0.45090   0.00000  Uiso   1.00
O98    O     0.64290   0.64290   0.95090   0.00000  Uiso   1.00
O99    O     0.85710   0.85710   0.45090   0.00000  Uiso   1.00
O100   O     0.35710   0.35710   0.95090   0.00000  Uiso   1.00
O101   O     0.85710   0.14290   0.54910   0.00000  Uiso   1.00
O102   O     0.35710   0.64290   0.04910   0.00000  Uiso   1.00
O103   O     0.14290   0.85710   0.54910   0.00000  Uiso   1.00
O104   O     0.64290   0.35710   0.04910   0.00000  Uiso   1.00
O105   O     0.45090   0.14290   0.14290   0.00000  Uiso   1.00
O106   O     0.95090   0.64290   0.64290   0.00000  Uiso   1.00
O107   O     0.45090   0.85710   0.85710   0.00000  Uiso   1.00
O108   O     0.95090   0.35710   0.35710   0.00000  Uiso   1.00
O109   O     0.54910   0.85710   0.14290   0.00000  Uiso   1.00
O110   O     0.04910   0.35710   0.64290   0.00000  Uiso   1.00
O111   O     0.54910   0.14290   0.85710   0.00000  Uiso   1.00
O112   O     0.04910   0.64290   0.35710   0.00000  Uiso   1.00
O113   O     0.14290   0.45090   0.14290   0.00000  Uiso   1.00
O114   O     0.64290   0.95090   0.64290   0.00000  Uiso   1.00
O115   O     0.85710   0.45090   0.85710   0.00000  Uiso   1.00
O116   O     0.35710   0.95090   0.35710   0.00000  Uiso   1.00
O117   O     0.14290   0.54910   0.85710   0.00000  Uiso   1.00
O118   O     0.64290   0.04910   0.35710   0.00000  Uiso   1.00
O119   O     0.85710   0.54910   0.14290   0.00000  Uiso   1.00
O120   O     0.35710   0.04910   0.64290   0.00000  Uiso   1.00
O121   O     0.00000   0.14950   0.50000   0.00000  Uiso   1.00
O122   O     0.50000   0.64950   0.00000   0.00000  Uiso   1.00
O123   O     0.00000   0.85050   0.50000   0.00000  Uiso   1.00
O124   O     0.50000   0.35050   0.00000   0.00000  Uiso   1.00
O125   O     0.50000   0.00000   0.14950   0.00000  Uiso   1.00
O126   O     0.00000   0.50000   0.64950   0.00000  Uiso   1.00
O127   O     0.50000   0.00000   0.85050   0.00000  Uiso   1.00
O128   O     0.00000   0.50000   0.35050   0.00000  Uiso   1.00
O129   O     0.14950   0.50000   0.00000   0.00000  Uiso   1.00
O130   O     0.64950   0.00000   0.50000   0.00000  Uiso   1.00
O131   O     0.85050   0.50000   0.00000   0.00000  Uiso   1.00
O132   O     0.35050   0.00000   0.50000   0.00000  Uiso   1.00
O133   O     0.14950   0.00000   0.50000   0.00000  Uiso   1.00
O134   O     0.64950   0.50000   0.00000   0.00000  Uiso   1.00
O135   O     0.85050   0.00000   0.50000   0.00000  Uiso   1.00
O136   O     0.35050   0.50000   0.00000   0.00000  Uiso   1.00
O137   O     0.00000   0.50000   0.14950   0.00000  Uiso   1.00
O138   O     0.50000   0.00000   0.64950   0.00000  Uiso   1.00
O139   O     0.00000   0.50000   0.85050   0.00000  Uiso   1.00
O140   O     0.50000   0.00000   0.35050   0.00000  Uiso   1.00
O141   O     0.50000   0.14950   0.00000   0.00000  Uiso   1.00
O142   O     0.00000   0.64950   0.50000   0.00000  Uiso   1.00
O143   O     0.50000   0.85050   0.00000   0.00000  Uiso   1.00
O144   O     0.00000   0.35050   0.50000   0.00000  Uiso   1.00
Li145  Li    0.46501   0.50194  -0.01432   0.00000  Uiso   1.00
Li146  Li    0.64681   0.83745   0.66376   0.00000  Uiso   1.00
Li147  Li    0.75198   0.69561   0.09819   0.00000  Uiso   1.00
loop_
_geom_bond_atom_site_label_1
_geom_bond_atom_site_label_2
_geom_bond_distance
_geom_bond_site_symmetry_2
_ccdc_geom_bond_type
O1     Si2     1.616   .     S
O1     Si88    1.615   1_455 S
Si2    O97     1.603   .     S
Si2    O121    1.618   .     S
Si2    O95     1.615   .     S
O3     Si4     1.616   .     S
O3     Si86    1.615   .     S
Si4    O98     1.603   .     S
Si4    O122    1.618   1_556 S
Si4    O93     1.615   1_556 S
O5     Si6     1.616   .     S
O5     Si92    1.615   1_655 S
Si6    O99     1.603   .     S
Si6    O123    1.618   1_655 S
Si6    O83     1.615   .     S
O7     Si8     1.616   .     S
O7     Si90    1.615   .     S
Si8    O100    1.603   .     S
Si8    O124    1.618   1_556 S
Si8    O81     1.615   1_556 S
O9     Si10    1.616   .     S
O9     Si96    1.615   1_655 S
Si10   O101    1.603   .     S
Si10   O121    1.618   1_655 S
Si10   O87     1.615   .     S
O11    Si12    1.616   .     S
O11    Si94    1.615   .     S
Si12   O102    1.603   .     S
Si12   O122    1.618   .     S
Si12   O85     1.615   1_554 S
O13    Si14    1.616   .     S
O13    Si84    1.615   1_455 S
Si14   O103    1.603   .     S
Si14   O123    1.618   .     S
Si14   O91     1.615   .     S
O15    Si16    1.616   .     S
O15    Si82    1.615   .     S
Si16   O104    1.603   .     S
Si16   O124    1.618   .     S
Si16   O89     1.615   1_554 S
O17    Si18    1.616   .     S
O17    Si72    1.615   1_545 S
Si18   O105    1.603   .     S
Si18   O125    1.618   .     S
Si18   O79     1.615   .     S
O19    Si20    1.616   .     S
O19    Si70    1.615   .     S
Si20   O106    1.603   .     S
Si20   O126    1.618   1_655 S
Si20   O77     1.615   1_655 S
O21    Si22    1.616   .     S
O21    Si76    1.615   1_565 S
Si22   O107    1.603   .     S
Si22   O127    1.618   1_565 S
Si22   O67     1.615   .     S
O23    Si24    1.616   .     S
O23    Si74    1.615   .     S
Si24   O108    1.603   .     S
Si24   O128    1.618   1_655 S
Si24   O65     1.615   1_655 S
O25    Si26    1.616   .     S
O25    Si80    1.615   1_565 S
Si26   O109    1.603   .     S
Si26   O125    1.618   1_565 S
Si26   O71     1.615   .     S
O27    Si28    1.616   .     S
O27    Si78    1.615   .     S
Si28   O110    1.603   .     S
Si28   O126    1.618   .     S
Si28   O69     1.615   1_455 S
O29    Si30    1.616   .     S
O29    Si68    1.615   1_545 S
Si30   O111    1.603   .     S
Si30   O127    1.618   .     S
Si30   O75     1.615   .     S
O31    Si32    1.616   .     S
O31    Si66    1.615   .     S
Si32   O112    1.603   .     S
Si32   O128    1.618   .     S
Si32   O73     1.615   1_455 S
O33    Si34    1.616   .     S
O33    Si56    1.615   1_554 S
Si34   O113    1.603   .     S
Si34   O129    1.618   .     S
Si34   O63     1.615   .     S
O35    Si36    1.616   .     S
O35    Si54    1.615   .     S
Si36   O114    1.603   .     S
Si36   O130    1.618   1_565 S
Si36   O61     1.615   1_565 S
O37    Si38    1.616   .     S
O37    Si60    1.615   1_556 S
Si38   O115    1.603   .     S
Si38   O131    1.618   1_556 S
Si38   O51     1.615   .     S
O39    Si40    1.616   .     S
O39    Si58    1.615   .     S
Si40   O116    1.603   .     S
Si40   O132    1.618   1_565 S
Si40   O49     1.615   1_565 S
O41    Si42    1.616   .     S
O41    Si64    1.615   1_556 S
Si42   O117    1.603   .     S
Si42   O129    1.618   1_556 S
Si42   O55     1.615   .     S
O43    Si44    1.616   .     S
O43    Si62    1.615   .     S
Si44   O118    1.603   .     S
Si44   O130    1.618   .     S
Si44   O53     1.615   1_545 S
O45    Si46    1.616   .     S
O45    Si52    1.615   1_554 S
O45    Li147   2.050   .     S
Si46   O119    1.603   .     S
Si46   O131    1.618   .     S
Si46   O59     1.615   .     S
O47    Si48    1.616   .     S
O47    Si50    1.615   .     S
Si48   O120    1.603   .     S
Si48   O132    1.618   .     S
Si48   O57     1.615   1_545 S
O49    Si50    1.616   .     S
O49    Si40    1.615   1_545 S
Si50   O97     1.603   .     S
Si50   O133    1.618   .     S
O51    Si52    1.616   .     S
Si52   O98     1.603   .     S
Si52   O134    1.618   1_556 S
Si52   O45     1.615   1_556 S
O53    Si54    1.616   .     S
O53    Si44    1.615   1_565 S
Si54   O99     1.603   .     S
Si54   O135    1.618   1_565 S
O55    Si56    1.616   .     S
Si56   O100    1.603   .     S
Si56   O136    1.618   1_556 S
Si56   O33     1.615   1_556 S
O57    Si58    1.616   .     S
O57    Si48    1.615   1_565 S
Si58   O103    1.603   .     S
Si58   O133    1.618   1_565 S
O59    Si60    1.616   .     S
Si60   O104    1.603   .     S
Si60   O134    1.618   .     S
Si60   O37     1.615   1_554 S
O61    Si62    1.616   .     S
O61    Si36    1.615   1_545 S
Si62   O101    1.603   .     S
Si62   O135    1.618   .     S
O63    Si64    1.616   .     S
Si64   O102    1.603   .     S
Si64   O136    1.618   .     S
Si64   O41     1.615   1_554 S
O65    Si66    1.616   .     S
O65    Si24    1.615   1_455 S
Si66   O113    1.603   .     S
Si66   O137    1.618   .     S
O67    Si68    1.616   .     S
Si68   O114    1.603   .     S
Si68   O138    1.618   1_565 S
Si68   O29     1.615   1_565 S
O69    Si70    1.616   .     S
O69    Si28    1.615   1_655 S
Si70   O115    1.603   .     S
Si70   O139    1.618   1_655 S
O71    Si72    1.616   .     S
Si72   O116    1.603   .     S
Si72   O140    1.618   1_565 S
Si72   O17     1.615   1_565 S
O73    Si74    1.616   .     S
O73    Si32    1.615   1_655 S
Si74   O119    1.603   .     S
Si74   O137    1.618   1_655 S
O75    Si76    1.616   .     S
Si76   O120    1.603   .     S
Si76   O138    1.618   .     S
Si76   O21     1.615   1_545 S
O77    Si78    1.616   .     S
O77    Si20    1.615   1_455 S
Si78   O117    1.603   .     S
Si78   O139    1.618   .     S
O79    Si80    1.616   .     S
Si80   O118    1.603   .     S
Si80   O140    1.618   .     S
Si80   O25     1.615   1_545 S
O81    Si82    1.616   .     S
O81    Si8     1.615   1_554 S
Si82   O105    1.603   .     S
Si82   O141    1.618   .     S
O83    Si84    1.616   .     S
Si84   O106    1.603   .     S
Si84   O142    1.618   1_655 S
Si84   O13     1.615   1_655 S
O85    Si86    1.616   .     S
O85    Si12    1.615   1_556 S
Si86   O107    1.603   .     S
Si86   O143    1.618   1_556 S
O87    Si88    1.616   .     S
Si88   O108    1.603   .     S
Si88   O144    1.618   1_655 S
Si88   O1      1.615   1_655 S
O89    Si90    1.616   .     S
O89    Si16    1.615   1_556 S
Si90   O111    1.603   .     S
Si90   O141    1.618   1_556 S
O91    Si92    1.616   .     S
Si92   O112    1.603   .     S
Si92   O142    1.618   .     S
Si92   O5      1.615   1_455 S
O93    Si94    1.616   .     S
O93    Si4     1.615   1_554 S
Si94   O109    1.603   .     S
Si94   O143    1.618   .     S
O95    Si96    1.616   .     S
Si96   O110    1.603   .     S
Si96   O144    1.618   .     S
Si96   O9      1.615   1_455 S
O114   Li146   2.050   .     S
O121   Si10    1.618   1_455 S
O122   Si4     1.618   1_554 S
O123   Si6     1.618   1_455 S
O124   Si8     1.618   1_554 S
O125   Si26    1.618   1_545 S
O126   Si20    1.618   1_455 S
O127   Si22    1.618   1_545 S
O128   Si24    1.618   1_455 S
O129   Si42    1.618   1_554 S
O130   Si36    1.618   1_545 S
O131   Si38    1.618   1_554 S
O132   Si40    1.618   1_545 S
O133   Si58    1.618   1_545 S
O134   Si52    1.618   1_554 S
O135   Si54    1.618   1_545 S
O136   Si56    1.618   1_554 S
O136   Li145   2.050   .     S
O137   Si74    1.618   1_455 S
O138   Si68    1.618   1_545 S
O139   Si70    1.618   1_455 S
O140   Si72    1.618   1_545 S
O141   Si90    1.618   1_554 S
O142   Si84    1.618   1_455 S
O143   Si86    1.618   1_554 S
O144   Si88    1.618   1_455 S
